Version 4
SHEET 1 916 680
WIRE 416 16 80 16
WIRE 416 80 416 16
WIRE 416 80 336 80
WIRE 480 80 416 80
WIRE 80 96 80 16
WIRE 480 176 480 144
WIRE 608 176 480 176
WIRE 720 176 608 176
WIRE 336 192 336 144
WIRE 336 192 256 192
WIRE 336 208 336 192
WIRE 480 208 480 176
WIRE 608 240 608 176
WIRE 720 240 720 176
WIRE 416 272 336 272
WIRE 480 272 416 272
WIRE 80 304 80 176
WIRE 416 304 416 272
WIRE 416 304 80 304
WIRE 256 528 256 192
WIRE 608 528 608 304
WIRE 608 528 256 528
WIRE 720 528 720 320
WIRE 720 528 608 528
WIRE 608 544 608 528
FLAG 608 544 0
FLAG 720 176 OUT
SYMBOL voltage 80 80 R0
WINDOW 123 0 0 Left 2
WINDOW 39 0 0 Left 2
SYMATTR InstName V1
SYMATTR Value SINE(0 4.86 88)
SYMBOL diode 464 80 R0
SYMATTR InstName D2
SYMATTR Value 1N4148
SYMBOL diode 352 144 R180
WINDOW 0 24 64 Left 2
WINDOW 3 55 36 Left 2
SYMATTR InstName D3
SYMATTR Value 1N4148
SYMBOL diode 496 272 R180
WINDOW 0 24 64 Left 2
WINDOW 3 -75 5 Left 2
SYMATTR InstName D4
SYMATTR Value 1N4148
SYMBOL diode 320 208 R0
WINDOW 3 -38 76 Left 2
SYMATTR InstName D5
SYMATTR Value 1N4148
SYMBOL res 704 224 R0
SYMATTR InstName R2
SYMATTR Value 250
SYMBOL cap 592 240 R0
SYMATTR InstName C1
SYMATTR Value 600µs
TEXT -336 72 Left 2 !.tran 0 0.1s 0 0.06ms
TEXT 80 -112 Left 4 ;Full bridge rectifier
TEXT -336 16 Left 2 ;Transient simulation
