Version 4
SHEET 1 1504 680
WIRE 288 -352 96 -352
WIRE 432 -352 368 -352
WIRE 576 -352 512 -352
WIRE 96 -320 96 -352
WIRE 576 -320 576 -352
WIRE 96 -192 96 -240
WIRE 576 -192 576 -256
WIRE 304 48 112 48
WIRE 432 48 384 48
WIRE 592 48 512 48
WIRE 112 80 112 48
WIRE 592 96 592 48
WIRE 112 192 112 160
WIRE 592 192 592 160
WIRE 176 400 112 400
WIRE 336 400 256 400
WIRE 384 400 336 400
WIRE 496 400 464 400
WIRE 608 400 576 400
WIRE 112 448 112 400
WIRE 336 448 336 400
WIRE 608 448 608 400
WIRE 112 576 112 528
WIRE 336 576 336 512
WIRE 608 576 608 512
FLAG 592 192 0
FLAG 112 192 0
FLAG 576 -192 0
FLAG 96 -192 0
FLAG 608 576 0
FLAG 112 576 0
FLAG 336 576 0
SYMBOL voltage 112 64 R0
WINDOW 123 24 124 Left 2
WINDOW 39 0 0 Left 0
SYMATTR Value2 AC 1
SYMATTR InstName V1
SYMATTR Value SINE(0 100 50)
SYMBOL res 400 32 R90
WINDOW 0 0 56 VBottom 2
WINDOW 3 32 56 VTop 2
SYMATTR InstName R1
SYMATTR Value 7.54
SYMBOL ind 528 32 R90
WINDOW 0 5 56 VBottom 2
WINDOW 3 32 56 VTop 2
SYMATTR InstName L1
SYMATTR Value 48m
SYMBOL cap 576 96 R0
SYMATTR InstName C1
SYMATTR Value 120µ
SYMBOL voltage 96 -336 R0
WINDOW 123 24 124 Left 2
WINDOW 39 0 0 Left 0
SYMATTR Value2 AC 1
SYMATTR InstName V2
SYMATTR Value SINE(0 100 50)
SYMBOL res 384 -368 R90
WINDOW 0 0 56 VBottom 2
WINDOW 3 32 56 VTop 2
SYMATTR InstName R2
SYMATTR Value 7.54
SYMBOL ind 528 -368 R90
WINDOW 0 5 56 VBottom 2
WINDOW 3 32 56 VTop 2
SYMATTR InstName L2
SYMATTR Value 48m
SYMBOL cap 560 -320 R0
SYMATTR InstName C2
SYMATTR Value 12µ
SYMBOL voltage 112 432 R0
WINDOW 123 24 124 Left 2
WINDOW 39 0 0 Left 0
SYMATTR Value2 AC 1
SYMATTR InstName V3
SYMATTR Value SINE(0 100 50)
SYMBOL res 480 384 R90
WINDOW 0 0 56 VBottom 2
WINDOW 3 32 56 VTop 2
SYMATTR InstName R3
SYMATTR Value 7.54
SYMBOL ind 592 384 R90
WINDOW 0 5 56 VBottom 2
WINDOW 3 32 56 VTop 2
SYMATTR InstName L3
SYMATTR Value 48m
SYMBOL cap 592 448 R0
SYMATTR InstName C3
SYMATTR Value 60µ
SYMBOL ind 272 384 R90
WINDOW 0 5 56 VBottom 2
WINDOW 3 32 56 VTop 2
SYMATTR InstName L4
SYMATTR Value 3m
SYMBOL cap 320 448 R0
SYMATTR InstName C4
SYMATTR Value 60µ
TEXT 816 -192 Left 2 !;tran 1
TEXT 816 -256 Left 2 !.ac dec 1000 10 80
TEXT -672 -448 Left 2 ;Case 1\n \n1. Aerial line\n2. Naked conductors\n3. Unloaded line (capacitive end load)\n \nGain is 1.06 or 0.5 dB
TEXT -672 -96 Left 2 ;Case 2\n \n1. Underground cable line\n2. Conductors insulated with EPR insulation\n3. Unloaded line (capacitive end load)\n \nGain is 1.94 or 5.73 dB
TEXT -672 320 Left 2 ;Case 3\n \n1. Underground cable line\n2. Conductors insulated with EPR insulation\n3. Unloaded line (capacitive end load)\n4. Capacitance is split according to pi line model\n5. Transformer reactance is taken into account\n \nTransformer reactance 0.0124 pu with zbase 4.84 ohm -> 0.96 ohm\n \nGain is 1.41 or 2 dB
TEXT -48 -640 Left 4 ;Ferranti effect
