Version 4
SHEET 1 2796 680
WIRE 1776 16 1408 16
WIRE 1904 16 1776 16
WIRE 2112 16 1904 16
WIRE 2384 16 2112 16
WIRE 2576 16 2576 -16
WIRE 2576 16 2384 16
WIRE 2592 16 2576 16
WIRE 1776 48 1776 16
WIRE 1904 48 1904 16
WIRE -320 112 -640 112
WIRE 16 112 -240 112
WIRE 288 112 16 112
WIRE 992 112 288 112
WIRE 1296 112 992 112
WIRE 992 144 992 112
WIRE 16 160 16 112
WIRE -640 176 -640 112
WIRE 288 192 288 112
WIRE 1296 192 1296 112
WIRE 1408 192 1408 16
WIRE 2112 208 2112 16
WIRE 2384 208 2384 16
WIRE 16 256 16 224
WIRE 992 256 992 224
WIRE 1776 304 1776 112
WIRE 1904 304 1904 112
WIRE -640 352 -640 256
WIRE 16 352 16 320
WIRE 16 352 -640 352
WIRE 288 352 288 272
WIRE 288 352 16 352
WIRE 992 352 992 320
WIRE 992 352 288 352
WIRE 1296 352 1296 272
WIRE 1296 352 992 352
WIRE 1408 416 1408 272
WIRE 1776 416 1776 368
WIRE 1776 416 1408 416
WIRE 1904 416 1904 368
WIRE 1904 416 1776 416
WIRE 2112 416 2112 272
WIRE 2112 416 1904 416
WIRE 2384 416 2384 288
WIRE 2384 416 2112 416
WIRE 2576 416 2384 416
WIRE 2592 416 2576 416
WIRE 2576 464 2576 416
FLAG 2576 464 0
FLAG 2576 -16 Vcc
SYMBOL res -224 96 R90
WINDOW 0 0 56 VBottom 2
WINDOW 3 32 56 VTop 2
SYMATTR InstName R1
SYMATTR Value Fuse
SYMBOL diode 0 160 R0
SYMATTR InstName D1
SYMBOL diode 32 320 R180
WINDOW 0 24 64 Left 2
WINDOW 3 24 0 Left 2
SYMATTR InstName D2
SYMBOL res 272 176 R0
SYMATTR InstName R2
SYMBOL res 976 128 R0
SYMATTR InstName R3
SYMATTR Value 100
SYMBOL cap 976 256 R0
SYMATTR InstName C1
SYMATTR Value 0.1µ
SYMATTR SpiceLine V=1kV
SYMBOL ind2 1312 288 R180
WINDOW 0 36 80 Left 2
WINDOW 3 36 40 Left 2
SYMATTR InstName L1
SYMATTR Type ind
SYMBOL ind2 1424 288 R180
WINDOW 0 36 80 Left 2
WINDOW 3 36 40 Left 2
SYMATTR InstName L2
SYMATTR Type ind
SYMBOL cap 2096 208 R0
SYMATTR InstName C2
SYMATTR Value 2200µ
SYMBOL res 2368 192 R0
SYMATTR InstName R4
SYMBOL diode 1792 112 R180
WINDOW 0 24 64 Left 2
WINDOW 3 24 0 Left 2
SYMATTR InstName D3
SYMBOL diode 1920 112 R180
WINDOW 0 24 64 Left 2
WINDOW 3 24 0 Left 2
SYMATTR InstName D4
SYMBOL diode 1792 368 R180
WINDOW 0 24 64 Left 2
WINDOW 3 24 0 Left 2
SYMATTR InstName D5
SYMBOL diode 1920 368 R180
WINDOW 0 24 64 Left 2
WINDOW 3 24 0 Left 2
SYMATTR InstName D6
SYMBOL voltage -640 160 R0
WINDOW 123 0 0 Left 0
WINDOW 39 0 0 Left 0
SYMATTR InstName Mains_voltage
SYMATTR Value 230V
TEXT 616 80 Left 2 ;EMI Filter
TEXT -56 72 Left 2 ;Clamping diodes
TEXT 256 80 Left 2 ;Varistor (MOV)
TEXT 944 72 Left 2 ;RC snubber
TEXT 1784 -24 Left 2 ;Diode bridge
TEXT 1272 -16 Left 2 ;Step down transformer
TEXT 2000 -24 Left 2 ;Smoothing capacitor
TEXT 2304 -40 Left 2 ;Bleeder resistor\nto discharge cap
TEXT 2552 232 Left 2 ;To low voltage circuit
RECTANGLE Normal 784 448 544 48 2
