Version 4
SHEET 1 1104 748
WIRE -32 32 -32 -16
WIRE 96 32 96 -16
WIRE 368 32 368 -16
WIRE 800 112 800 16
WIRE -32 144 -32 112
WIRE 96 144 96 112
WIRE 368 144 368 112
WIRE 624 160 624 16
WIRE 800 224 800 192
WIRE 912 224 800 224
WIRE 1040 224 976 224
WIRE 800 256 800 224
WIRE 1040 256 1040 224
WIRE 496 304 416 304
WIRE 624 304 624 240
WIRE 624 304 560 304
WIRE 736 304 624 304
WIRE 624 352 624 304
WIRE 1040 368 1040 336
WIRE 800 400 800 352
WIRE 800 400 720 400
WIRE 720 416 720 400
WIRE 800 416 800 400
WIRE 624 496 624 432
WIRE 720 512 720 480
WIRE 800 560 800 496
FLAG -32 144 0
FLAG 96 144 0
FLAG 368 144 0
FLAG -32 -16 Vcc
FLAG 96 -16 Vcarrier
FLAG 368 -16 Vmodulating
FLAG 624 16 Vcc
FLAG 800 16 Vcc
FLAG 624 496 0
FLAG 416 304 Vcarrier
FLAG 800 560 Vmodulating
FLAG 720 512 0
FLAG 1040 368 0
SYMBOL voltage -32 16 R0
WINDOW 123 0 0 Left 0
WINDOW 39 0 0 Left 0
SYMATTR InstName V1
SYMATTR Value 30
SYMBOL voltage 96 16 R0
WINDOW 123 0 0 Left 0
WINDOW 39 0 0 Left 0
SYMATTR InstName V2
SYMATTR Value SINE(0 30m 600k)
SYMBOL voltage 368 16 R0
WINDOW 123 0 0 Left 0
WINDOW 39 0 0 Left 0
SYMATTR InstName V3
SYMATTR Value SINE(0 3.5 1k)
SYMBOL res 608 144 R0
SYMATTR InstName R1
SYMATTR Value 56k
SYMBOL res 608 336 R0
SYMATTR InstName R2
SYMATTR Value 15k
SYMBOL cap 560 288 R90
WINDOW 0 0 32 VBottom 2
WINDOW 3 32 32 VTop 2
SYMATTR InstName C1
SYMATTR Value 100n
SYMBOL npn 736 256 R0
SYMATTR InstName Q1
SYMATTR Value 2N3904
SYMBOL res 784 96 R0
SYMATTR InstName R3
SYMATTR Value 10k
SYMBOL res 784 400 R0
SYMATTR InstName R4
SYMATTR Value 4.7k
SYMBOL cap 704 416 R0
SYMATTR InstName C2
SYMATTR Value 100n
SYMBOL cap 976 208 R90
WINDOW 0 0 32 VBottom 2
WINDOW 3 32 32 VTop 2
SYMATTR InstName C3
SYMATTR Value 470p
SYMBOL res 1024 240 R0
SYMATTR InstName R5
SYMATTR Value 1k
TEXT -66 552 Left 2 !.tran 2m
