Version 4
SHEET 1 1348 1060
WIRE -144 -128 -144 -144
WIRE -32 -128 -32 -144
WIRE -144 -16 -144 -48
WIRE -32 -16 -32 -48
WIRE 112 160 112 128
WIRE 112 256 112 240
WIRE 192 256 112 256
WIRE 112 288 112 256
WIRE 304 288 304 128
WIRE 192 336 192 256
WIRE 192 336 176 336
WIRE 240 336 192 336
WIRE 112 416 112 384
WIRE 304 416 304 384
WIRE 112 624 112 592
WIRE 112 720 112 704
WIRE 192 720 112 720
WIRE 112 752 112 720
WIRE 304 752 304 592
WIRE 192 800 192 720
WIRE 192 800 176 800
WIRE 240 800 192 800
WIRE 112 896 112 848
WIRE 304 896 304 848
WIRE 112 1008 112 976
WIRE 304 1008 304 976
FLAG 112 416 0
FLAG 304 416 0
FLAG -144 -16 0
FLAG -32 -16 0
FLAG 304 1008 0
FLAG 112 1008 0
FLAG -32 -144 VL
FLAG 304 128 VL
FLAG 304 592 VL
FLAG 112 592 Vcc
FLAG 112 128 Vcc
FLAG -144 -144 Vcc
SYMBOL voltage -144 -144 R0
WINDOW 123 0 0 Left 0
WINDOW 39 0 0 Left 0
SYMATTR InstName V1
SYMATTR Value 12
SYMBOL voltage -32 -144 R0
WINDOW 123 0 0 Left 0
WINDOW 39 0 0 Left 0
SYMATTR InstName V2
SYMATTR Value 1
SYMBOL npn 240 288 R0
SYMATTR InstName Q1
SYMATTR Value 2N3904
SYMBOL npn 176 288 M0
SYMATTR InstName Q2
SYMATTR Value 2N3904
SYMBOL res 96 144 R0
SYMATTR InstName R1
SYMATTR Value 11.4k
SYMBOL npn 240 752 R0
SYMATTR InstName Q3
SYMATTR Value 2N3904
SYMBOL npn 176 752 M0
SYMATTR InstName Q4
SYMATTR Value 2N3904
SYMBOL res 96 608 R0
SYMATTR InstName R2
SYMATTR Value 10.4k
SYMBOL res 96 880 R0
SYMATTR InstName R3
SYMATTR Value 1k
SYMBOL res 288 880 R0
SYMATTR InstName R4
SYMATTR Value 500
TEXT 96 8 Left 2 !.dc V2 0 10 0.1
TEXT 472 88 Left 2 ;Sizing:\n \n1) Set reference current -> 1 mA\n2) Iref = (Vcc-Vbe)/R1 -> R1 = (Vcc-Vbe)/R1 = (12-0.6)/1m =11.4k\n \nOutput resistance Rout = ?
TEXT 464 584 Left 2 ;The following relation holds: Io/Iref = R3/R4\n \nSizing:\n1) Set Iref = I(R2) = 1mA\n2) Set V(R3) = 1 V -> R3 = 1k ohm\n3) If we want Io = 2 Iref -> R3/R4 = 2 -> R4 = 500 ohm\n4) R is given by R = (Vcc - Vbe - V(R3))/Iref = (12-0.6-1)/1m = 10.4 k ohm
TEXT 320 696 Left 2 ;Io
TEXT 48 656 Left 2 ;Iref
TEXT 448 -120 Left 4 ;Current mirrors
TEXT 104 -24 Left 2 ;DC sweep analysis
RECTANGLE Normal 1248 464 0 48 2
RECTANGLE Normal 1248 1056 0 464 2
