Version 4
SHEET 1 2432 680
WIRE -224 -336 -224 -368
WIRE -80 -336 -80 -368
WIRE -224 -240 -224 -256
WIRE -80 -240 -80 -256
WIRE 256 128 256 112
WIRE 1328 128 1328 112
WIRE 48 144 48 128
WIRE 1120 144 1120 128
WIRE 256 224 256 208
WIRE 352 224 256 224
WIRE 496 224 416 224
WIRE 1328 240 1328 208
WIRE 1456 240 1328 240
WIRE 1616 240 1520 240
WIRE 256 256 256 224
WIRE 1328 256 1328 240
WIRE 496 272 496 224
WIRE -80 304 -192 304
WIRE 48 304 48 224
WIRE 48 304 -16 304
WIRE 192 304 48 304
WIRE 992 304 928 304
WIRE 1120 304 1120 224
WIRE 1120 304 1056 304
WIRE 1264 304 1120 304
WIRE 1616 304 1616 240
WIRE 48 336 48 304
WIRE 1120 336 1120 304
WIRE 1328 384 1328 352
WIRE 1440 384 1328 384
WIRE 256 400 256 352
WIRE 496 400 496 352
WIRE 1328 400 1328 384
WIRE 1440 416 1440 384
WIRE 1616 432 1616 384
WIRE 48 448 48 416
WIRE 1120 448 1120 416
WIRE 1328 512 1328 480
WIRE 1440 512 1440 480
WIRE 1440 512 1328 512
WIRE 256 528 256 480
WIRE 1328 560 1328 512
FLAG -224 -240 0
FLAG -80 -240 0
FLAG 256 528 0
FLAG 48 448 0
FLAG -224 -368 Vcc
FLAG 48 128 Vcc
FLAG 256 112 Vcc
FLAG 1328 560 0
FLAG 1120 448 0
FLAG 1120 128 Vcc
FLAG 1328 112 Vcc
FLAG 1616 432 0
FLAG 496 400 0
FLAG 496 224 Vout_1
FLAG 1616 240 Vout_2
FLAG -80 -368 V_signal
FLAG -192 304 V_signal
FLAG 928 304 V_signal
SYMBOL voltage -224 -352 R0
WINDOW 123 0 0 Left 0
WINDOW 39 0 0 Left 0
SYMATTR InstName V1
SYMATTR Value 12
SYMBOL voltage -80 -352 R0
WINDOW 3 24 152 Left 2
WINDOW 123 24 124 Left 2
WINDOW 39 0 0 Left 0
SYMATTR Value SINE(0 10m 10k)
SYMATTR Value2 AC 1
SYMATTR InstName V2
SYMBOL res 32 128 R0
SYMATTR InstName R1
SYMATTR Value 33k
SYMBOL res 32 320 R0
SYMATTR InstName R2
SYMATTR Value 3.3k
SYMBOL res 240 384 R0
SYMATTR InstName R3
SYMATTR Value 1.2k
SYMBOL res 240 112 R0
SYMATTR InstName R4
SYMATTR Value 4.7k
SYMBOL npn 192 256 R0
SYMATTR InstName Q1
SYMATTR Value 2N3904
SYMBOL cap -16 288 R90
WINDOW 0 0 32 VBottom 2
WINDOW 3 32 32 VTop 2
SYMATTR InstName C2
SYMATTR Value 2.2µ
SYMBOL res 1104 128 R0
SYMATTR InstName R5
SYMATTR Value 33k
SYMBOL res 1104 320 R0
SYMATTR InstName R6
SYMATTR Value 3.3k
SYMBOL res 1312 384 R0
SYMATTR InstName R7
SYMATTR Value 1.2k
SYMBOL res 1312 112 R0
SYMATTR InstName R8
SYMATTR Value 4.7k
SYMBOL npn 1264 256 R0
SYMATTR InstName Q2
SYMATTR Value 2N3904
SYMBOL cap 1056 288 R90
WINDOW 0 0 32 VBottom 2
WINDOW 3 32 32 VTop 2
SYMATTR InstName C1
SYMATTR Value 1µ
SYMBOL cap 1424 416 R0
SYMATTR InstName Cb
SYMATTR Value 47µ
SYMBOL cap 1520 224 R90
WINDOW 0 0 32 VBottom 2
WINDOW 3 32 32 VTop 2
SYMATTR InstName C4
SYMATTR Value 39µ
SYMBOL res 1600 288 R0
SYMATTR InstName R9
SYMATTR Value 100k
SYMBOL cap 416 208 R90
WINDOW 0 0 32 VBottom 2
WINDOW 3 32 32 VTop 2
SYMATTR InstName C5
SYMATTR Value 39µ
SYMBOL res 480 256 R0
SYMATTR InstName R10
SYMATTR Value 100k
TEXT 168 -160 Left 2 !.ac dec 100 1 10000Meg
TEXT -296 -16 Left 2 ;Without bypass capacitor, ideal for low value gain\n \nGain -> -R4/R3 -> 20*log10(R4/R3) = 10 dB
TEXT 824 -32 Left 2 ;With bypass capacitor, ideal for high gain\n \nGain -> -R8*I(R8)/V_t -> 20*log10(R8*I(R8)/V_t) -> 20*log10((12-10.2)/0.26m) = 36.8 dB\nV_t = 26 mV @ 25°C
TEXT 168 -624 Left 2 ;Class A amplifier\n \n1) Ideally: assume a few mV across R3, Va = 1 or 1.5 V and Vb between 1 and Vcc / 2\n \n2) Set R4 according to desired gain, for example, if gain desired is 3.92 then:\n| gain | = R4/R3 = 4.7k/1.2k= 3.92 -> 20*log10(3.92) = 11.86 dB (with phase 180, i.e. the input is multiplied by -1)\n \n3) Assume Vb = 10.2 V then -> Ic = (Vcc - 10.2)/R4 = 382 uA\nIe is practically equal to Ic so if we want 460 mV across R3 then R3 = 460 mV / 382 uA = 1.2k Ohm\n \n4) Va = 460mV + 600mV = 1.06 V. Approximately Ib = Ie/100 = 3.82 uA. Set R2 to 3.3 k Ohm so that total current through R1 is 325 uA\nR1 = (12 - 1.06)/325 uA) = 33.6k Ohm\n \n4) Size capacitor to be (in practice) short circuits at the desired frequency Xc = 1/(2*pi*f*C)
TEXT 64 288 Left 2 ;A
TEXT 272 240 Left 2 ;B
TEXT 184 -208 Left 2 !;tran 10m
RECTANGLE Normal 720 640 -352 -64 2
RECTANGLE Normal 1760 640 720 -64 2
