Version 4
SHEET 1 2556 1220
WIRE -1520 -240 -1520 -256
WIRE -1392 -240 -1392 -256
WIRE -1520 -144 -1520 -160
WIRE -1392 -128 -1392 -160
WIRE 576 64 480 64
WIRE 736 64 656 64
WIRE 736 96 736 64
WIRE -864 128 -864 80
WIRE -1344 176 -1488 176
WIRE -1088 176 -1264 176
WIRE -928 176 -1088 176
WIRE 1040 176 928 176
WIRE 736 192 736 176
WIRE 928 192 928 176
WIRE -864 256 -864 224
WIRE -720 256 -864 256
WIRE 1040 256 1040 176
WIRE -1088 272 -1088 176
WIRE -720 288 -720 256
WIRE -864 304 -864 256
WIRE 736 304 736 272
WIRE 848 304 736 304
WIRE 928 304 928 272
WIRE 928 304 848 304
WIRE 848 352 848 304
WIRE -720 384 -720 352
WIRE -1088 400 -1088 336
WIRE -864 416 -864 384
WIRE 848 464 848 432
WIRE -720 496 -720 464
WIRE -1088 672 -1088 640
WIRE 272 736 208 736
WIRE 448 736 352 736
WIRE 544 736 448 736
WIRE 608 736 544 736
WIRE 752 736 688 736
WIRE 1056 736 944 736
WIRE -864 752 -864 704
WIRE 944 752 944 736
WIRE 448 768 448 736
WIRE 544 768 544 736
WIRE 752 768 752 736
WIRE -1264 800 -1344 800
WIRE -1088 800 -1088 752
WIRE -1088 800 -1200 800
WIRE -928 800 -1088 800
WIRE 1056 816 1056 736
WIRE 752 864 752 848
WIRE 864 864 752 864
WIRE 944 864 944 832
WIRE 944 864 864 864
WIRE -864 880 -864 848
WIRE -752 880 -864 880
WIRE 448 896 448 848
WIRE 544 896 544 848
WIRE -1088 912 -1088 800
WIRE 864 912 864 864
WIRE -864 928 -864 880
WIRE 864 1024 864 992
WIRE -1088 1040 -1088 992
WIRE -864 1040 -864 1008
FLAG -864 416 0
FLAG -1392 -128 0
FLAG -1520 -144 0
FLAG -1520 -256 Vcc
FLAG -864 80 Vcc
FLAG -1488 176 Vcc
FLAG -1088 400 V_signal
FLAG -1392 -256 V_signal
FLAG -864 1040 0
FLAG -864 704 Vcc
FLAG -1088 640 Vcc
FLAG -1344 800 V_signal
FLAG -1088 1040 0
FLAG 848 464 0
FLAG 1040 256 0
FLAG 864 1024 0
FLAG 1056 816 0
FLAG 480 64 V_signal
FLAG 208 736 V_signal
FLAG -720 496 0
FLAG -720 256 Vout_1
FLAG -752 880 Vout_2
FLAG 448 896 0
FLAG 544 896 0
SYMBOL npn -928 128 R0
SYMATTR InstName Q1
SYMATTR Value 2N3904
SYMBOL res -880 288 R0
SYMATTR InstName R1
SYMATTR Value 3.5k
SYMBOL voltage -1392 -256 R0
WINDOW 123 24 124 Left 2
WINDOW 39 0 0 Left 2
WINDOW 3 24 152 Left 2
SYMATTR Value2 AC 1
SYMATTR Value SINE(0 100m 100k)
SYMATTR InstName V1
SYMBOL voltage -1520 -256 R0
WINDOW 123 0 0 Left 2
WINDOW 39 0 0 Left 2
SYMATTR InstName V2
SYMATTR Value 12
SYMBOL res -1360 192 R270
WINDOW 0 32 56 VTop 2
WINDOW 3 0 56 VBottom 2
SYMATTR InstName R2
SYMATTR Value 620k
SYMBOL cap -1104 272 R0
SYMATTR InstName C1
SYMATTR Value 159µ
SYMBOL npn -928 752 R0
SYMATTR InstName Q2
SYMATTR Value 2N3904
SYMBOL res -880 912 R0
SYMATTR InstName R3
SYMATTR Value 3.5k
SYMBOL cap -1200 784 R90
WINDOW 0 0 32 VBottom 2
WINDOW 3 32 32 VTop 2
SYMATTR InstName C2
SYMATTR Value 159µ
SYMBOL res -1104 656 R0
SYMATTR InstName R4
SYMATTR Value 50.6k
SYMBOL res -1104 896 R0
SYMATTR InstName R5
SYMATTR Value 86.15k
SYMBOL res 672 48 R90
WINDOW 0 0 56 VBottom 2
WINDOW 3 32 56 VTop 2
SYMATTR InstName R6
SYMATTR Value 10m
SYMBOL res 752 192 R180
WINDOW 0 36 76 Left 2
WINDOW 3 36 40 Left 2
SYMATTR InstName R7
SYMATTR Value 2.99k
SYMBOL res 864 448 R180
WINDOW 0 36 76 Left 2
WINDOW 3 36 40 Left 2
SYMATTR InstName R8
SYMATTR Value 3.5k
SYMBOL res 768 864 R180
WINDOW 0 36 76 Left 2
WINDOW 3 36 40 Left 2
SYMATTR InstName R10
SYMATTR Value 2.99k
SYMBOL res 880 1008 R180
WINDOW 0 36 76 Left 2
WINDOW 3 36 40 Left 2
SYMATTR InstName R11
SYMATTR Value 3.5k
SYMBOL f 928 192 R0
SYMATTR InstName F1
SYMATTR Value V3 230
SYMBOL voltage 736 176 R0
WINDOW 123 0 0 Left 0
WINDOW 39 0 0 Left 0
SYMATTR InstName V3
SYMATTR Value 0
SYMBOL voltage 592 736 R270
WINDOW 123 0 0 Left 0
WINDOW 39 0 0 Left 0
SYMATTR InstName V4
SYMATTR Value 0
SYMBOL f 944 752 R0
SYMATTR InstName F2
SYMATTR Value V4 230
SYMBOL cap -704 352 R180
WINDOW 0 24 56 Left 2
WINDOW 3 24 8 Left 2
SYMATTR InstName C3
SYMATTR Value 159µ
SYMBOL res -736 368 R0
SYMATTR InstName R9
SYMATTR Value 100k
SYMBOL res 368 720 R90
WINDOW 0 0 56 VBottom 2
WINDOW 3 32 56 VTop 2
SYMATTR InstName R12
SYMATTR Value 10m
SYMBOL res 432 752 R0
SYMATTR InstName R13
SYMATTR Value 50.6k
SYMBOL res 528 752 R0
SYMATTR InstName R14
SYMATTR Value 86.15k
TEXT -1240 -312 Left 2 ;At the emitter there is the signal sent to the base. Example of negative feedback.
TEXT -1040 -400 Left 4 ;Common collector configuration (also known as Emitter-Follower)
TEXT -608 72 Left 2 ;Sizing:\n \n1) Set Vout quiescent point at 7 V\n2) Set Ie = 2 mA -> Re = R1 = 7/2 mA = 3.5k ohm\n3) Ib = Ie/(beta+1) = 8.7 uA approximately with beta=230\n4) Vbase = 7 + 0.6 = 7.6 V -> Rb = R2 = (12-7.6)/8.7uA = 505k ohm\n5) Cap should offer very low impedance at signal frequency 100kHz ->\nXc = 1/(2*pi*f*C) for instance 10m Ohm -> C = 1/(2*pi*f*0.01)=159 uF\n \nExpected gain: 0.996 -> 20*log10(0.996) = -34 mdB -> almost 1
TEXT -1096 -112 Left 2 !.ac dec 100 1 1Meg
TEXT -616 688 Left 2 ;Sizing same as above except R4 and R5 sizing:\n \n1) Set Vout quiescent point at 7 V\n2) Set Ie = 2 mA -> Re = R3 = 7/2 mA = 3.5k ohm\n3) Ib = Ie/(beta+1) = 8.7 uA approximately with beta=230\n4) Vbase = 7 + 0.6 = 7.6 V\nTotal current through R4 set 10* Ib = 87 uA\nR4 = (12-7.6)/87u=50.6k ohm\na=(7.6/12)=R5/(R5+R4) -> R5 = R4*a/(1-a)=86.15k \n5) Cap should offer very low impedance at signal frequency 100kHz ->\nXc = 1/(2*pi*f*C) for instance 10m Ohm -> C = 1/(2*pi*f*0.01)=159 uF\n \nOver previous configuration\nAdvantage: use lower value resistors for biasing\nDisadvantage: use 2 resistors for biasing\n \nExpected gain: 0.996 -> 20*log10(0.996) = -34 mdB -> almost 1
TEXT -1000 152 Left 2 ;Vbase
TEXT -992 776 Left 2 ;Vbase
TEXT 392 496 Left 2 ;Rs is almost zero (capacitor impedance)
TEXT 760 88 Left 2 ;Rpi
TEXT 888 368 Left 2 ;Re
TEXT 912 152 Left 2 ;beta*ib
TEXT 760 160 Left 2 ;Ib
TEXT 864 328 Left 2 ;Vout
TEXT 296 984 Left 2 ;Rs is 10m Ohm at signal frequency\nso it's omitted for simplicity. \nR12 and R3 (i.e. R4 and R5) are almost in \nparallel to the voltage source -> as if they were not there
TEXT 776 760 Left 2 ;Rpi
TEXT 904 928 Left 2 ;Re
TEXT 928 712 Left 2 ;beta*ib
TEXT 776 848 Left 2 ;Ib
TEXT 880 888 Left 2 ;Vout
TEXT 1112 56 Left 3 ;Small signal NPN BJT model
TEXT 896 600 Left 3 ;Small signal NPN BJT model
TEXT 1240 232 Left 2 ;Vo = Vout = (1+beta)*Ib = (1+beta)*Re*Vin/(Rs+rpi+(1+beta)*Re)\nIb = Vin/(Rs+rpi+(1+beta)*Re)\n \nrpi = (beta+1)*V_T/Ie_Q = 230*26m/2m = 2.99k ohm\nRs = 10m\n \nGain = (1+beta)*Re*/(Rs+rpi+(1+beta)*Re) = (1+229)*3.5k/(10m+ 2.99k +230*3.5k) = 0.996 -> about 1\n \nInput impedance=Vin/i_in = Vsignal/ib = Rs + rpi + (1+beta)*Re = 10m + 2.99k+3.5k*229 =804.49k ohm\n \nOutput impedance is Re//rpi/(1+beta) = 3.5k // (2.99k/229) = 12.95 ohm
TEXT 1048 864 Left 2 ;Vo = Vout = (1+beta)*Ib = (1+beta)*Re*Vin/(Rs+rpi+(1+beta)*Re)\nIb = Vin/(Rs+rpi+(1+beta)*Re)\n \nrpi = (beta+1)*V_T/Ie_Q = 230*26m/2m = 2.99k ohm\nRs = 10m\n \nGain = (1+beta)*Re*/(Rs+rpi+(1+beta)*Re) = (1+229)*3.5k/(10m+ 2.99k +230*3.5k) = 0.996 -> about 1\n \nInput impedance=Vin/i_in = Vsignal/ib = Rs + rpi + (1+beta)*Re = 10m + 2.99k+3.5k*229 =804.49k ohm\n \nOutput impedance is Re//rpi/(1+beta) = 3.5k // (2.99k/229) = 12.95 ohm (Rs is very low so it short circuits R4 and R5)
TEXT -1096 -64 Left 2 !;tran 1m
RECTANGLE Normal 2320 560 -1584 16 2
RECTANGLE Normal 2320 1200 -1584 560 2
