Version 4
SHEET 1 880 680
WIRE 368 32 272 32
WIRE 544 32 448 32
WIRE 544 160 544 32
WIRE 16 176 0 176
WIRE 272 176 272 32
WIRE 272 176 96 176
WIRE 368 176 272 176
WIRE 544 192 544 160
WIRE 544 192 432 192
WIRE 272 208 192 208
WIRE 368 208 272 208
WIRE 112 240 96 240
WIRE 192 240 192 208
WIRE 272 288 272 208
FLAG 0 336 0
FLAG -112 336 0
FLAG -96 96 0
FLAG 0 96 0
FLAG -96 16 Vcc
FLAG 400 160 Vcc
FLAG 0 16 Vee
FLAG 400 224 Vee
FLAG 0 176 Va
FLAG 96 240 Vb
FLAG 0 256 Vb
FLAG -112 256 Va
FLAG 544 160 OUT
FLAG 272 368 0
SYMBOL Opamps\\LT1007 400 128 R0
SYMATTR InstName U1
SYMBOL res 112 160 R90
WINDOW 0 0 56 VBottom 2
WINDOW 3 32 56 VTop 2
SYMATTR InstName R1
SYMATTR Value 1k
SYMBOL res 208 224 R90
WINDOW 0 0 56 VBottom 2
WINDOW 3 32 56 VTop 2
SYMATTR InstName R3
SYMATTR Value 1k
SYMBOL res 288 384 R180
WINDOW 0 36 76 Left 2
WINDOW 3 36 40 Left 2
SYMATTR InstName R4
SYMATTR Value 1k
SYMBOL res 352 48 R270
WINDOW 0 32 56 VTop 2
WINDOW 3 0 56 VBottom 2
SYMATTR InstName R2
SYMATTR Value 1k
SYMBOL voltage -96 0 R0
WINDOW 123 0 0 Left 2
WINDOW 39 0 0 Left 2
SYMATTR InstName V1
SYMATTR Value 30
SYMBOL voltage 0 0 R0
WINDOW 123 0 0 Left 2
WINDOW 39 0 0 Left 2
SYMATTR InstName V2
SYMATTR Value -30
SYMBOL voltage -112 240 R0
WINDOW 123 24 124 Left 2
WINDOW 39 0 0 Left 2
SYMATTR Value2 AC 1
SYMATTR InstName V3
SYMATTR Value 5
SYMBOL voltage 0 240 R0
WINDOW 123 24 124 Left 2
WINDOW 39 0 0 Left 2
SYMATTR Value2 AC 1
SYMATTR InstName V4
SYMATTR Value 1
TEXT -248 16 Left 2 !.tran 1s
TEXT -800 136 Left 2 ;This circuit amplifies R2/R1 * (Vb  -  Va). \nSince R2 = R1, the output is simply Vb - Va.
TEXT -104 -144 Left 4 ;Difference amplifier
