Version 4
SHEET 1 1096 680
WIRE 128 0 -16 0
WIRE 288 16 192 16
WIRE 400 16 288 16
WIRE 544 16 480 16
WIRE 768 16 624 16
WIRE -16 112 -16 0
WIRE 288 112 288 96
WIRE 288 112 -16 112
WIRE 288 128 288 112
WIRE 544 160 544 16
WIRE 640 160 544 160
WIRE 768 176 768 16
WIRE 768 176 704 176
WIRE 640 192 544 192
WIRE 288 224 288 208
WIRE 288 224 -16 224
WIRE 288 256 288 224
WIRE -16 320 -16 224
WIRE 128 320 -16 320
WIRE 288 336 192 336
WIRE 400 336 288 336
WIRE 544 336 544 192
WIRE 544 336 480 336
WIRE 560 336 544 336
WIRE 672 336 640 336
WIRE 672 352 672 336
FLAG 672 352 0
FLAG 144 -160 0
FLAG 240 -160 0
FLAG 432 -160 0
FLAG 560 -160 0
FLAG 432 -240 Vcc
FLAG 160 -16 Vcc
FLAG 160 304 Vcc
FLAG 672 144 Vcc
FLAG 560 -240 Vee
FLAG 160 48 Vee
FLAG 160 368 Vee
FLAG 672 208 Vee
FLAG 144 -240 Va
FLAG 128 352 Va
FLAG 240 -240 Vb
FLAG 128 32 Vb
FLAG 768 16 OUT
SYMBOL Opamps\\LT1007 160 -48 R0
SYMATTR InstName U1
SYMBOL Opamps\\LT1007 160 272 R0
SYMATTR InstName U2
SYMBOL Opamps\\LT1007 672 112 R0
SYMATTR InstName U3
SYMBOL res 272 112 R0
SYMATTR InstName Rg
SYMATTR Value 20k
SYMBOL res 272 240 R0
SYMATTR InstName R2
SYMATTR Value 10k
SYMBOL res 272 0 R0
SYMATTR InstName R1
SYMATTR Value 10k
SYMBOL res 496 0 R90
WINDOW 0 0 56 VBottom 2
WINDOW 3 32 56 VTop 2
SYMATTR InstName R3
SYMATTR Value 10k
SYMBOL res 496 320 R90
WINDOW 0 0 56 VBottom 2
WINDOW 3 32 56 VTop 2
SYMATTR InstName R4
SYMATTR Value 10k
SYMBOL res 656 320 R90
WINDOW 0 0 56 VBottom 2
WINDOW 3 32 56 VTop 2
SYMATTR InstName R6
SYMATTR Value 10k
SYMBOL res 640 0 R90
WINDOW 0 0 56 VBottom 2
WINDOW 3 32 56 VTop 2
SYMATTR InstName R5
SYMATTR Value 10k
SYMBOL voltage 144 -256 R0
WINDOW 123 0 0 Left 2
WINDOW 39 0 0 Left 2
SYMATTR InstName V1
SYMATTR Value 10
SYMBOL voltage 240 -256 R0
WINDOW 123 0 0 Left 2
WINDOW 39 0 0 Left 2
SYMATTR InstName V2
SYMATTR Value 0
SYMBOL voltage 432 -256 R0
WINDOW 123 0 0 Left 2
WINDOW 39 0 0 Left 2
SYMATTR InstName V3
SYMATTR Value 30
SYMBOL voltage 560 -256 R0
WINDOW 123 0 0 Left 2
WINDOW 39 0 0 Left 2
SYMATTR InstName V4
SYMATTR Value -30
TEXT -24 -224 Left 2 !.tran 1s
TEXT 352 48 Left 2 ;R1
TEXT 344 272 Left 2 ;R1
TEXT 432 -56 Left 2 ;R2
TEXT 440 272 Left 2 ;R2
TEXT 576 -48 Left 2 ;R3
TEXT 592 272 Left 2 ;R3
TEXT -472 160 Left 2 ;Using the blue names for the resistors:\n \nVout = (Va - Vb) * (1 + 2R1/Rg)R3/R2
TEXT -16 -392 Left 4 ;Instrumentation amplifier
