Version 4
SHEET 1 884 680
WIRE 64 96 -224 96
WIRE 352 112 128 112
WIRE 464 112 416 112
WIRE 608 112 464 112
WIRE 704 112 672 112
WIRE 64 128 16 128
WIRE 464 128 464 112
WIRE 704 128 704 112
WIRE -224 240 -224 96
WIRE 16 240 16 128
FLAG -192 16 0
FLAG -96 16 0
FLAG -224 320 0
FLAG 16 320 0
FLAG 464 208 0
FLAG 704 208 0
FLAG -192 -64 Vcc
FLAG 96 80 Vcc
FLAG -96 -64 Vee
FLAG 96 144 Vee
SYMBOL Opamps\\LT1007A 96 48 R0
SYMATTR InstName U1
SYMBOL voltage -224 224 R0
WINDOW 123 0 0 Left 2
WINDOW 39 0 0 Left 2
SYMATTR InstName Signal
SYMATTR Value SINE(0 1 10)
SYMBOL voltage 16 224 R0
WINDOW 123 0 0 Left 2
WINDOW 39 0 0 Left 2
SYMATTR InstName Vref
SYMATTR Value 0.8
SYMBOL voltage -192 -80 R0
WINDOW 123 0 0 Left 2
WINDOW 39 0 0 Left 2
SYMATTR InstName V3
SYMATTR Value 10
SYMBOL voltage -96 -80 R0
WINDOW 123 0 0 Left 2
WINDOW 39 0 0 Left 2
SYMATTR InstName V4
SYMATTR Value -10
SYMBOL res 448 112 R0
SYMATTR InstName R2
SYMATTR Value 100k
SYMBOL cap 416 96 R90
WINDOW 0 0 32 VBottom 2
WINDOW 3 32 32 VTop 2
SYMATTR InstName C1
SYMATTR Value 1µ
SYMBOL diode 608 128 R270
WINDOW 0 32 32 VTop 2
WINDOW 3 0 32 VBottom 2
SYMATTR InstName D1
SYMBOL res 688 112 R0
SYMATTR InstName R1
SYMATTR Value 10k
TEXT 0 0 Left 2 !.tran 1
TEXT 136 192 Left 2 ;Comparator
TEXT 448 272 Left 2 ;High pass
TEXT 720 272 Left 2 ;OUT
TEXT 112 -104 Left 4 ;Peak trigger circuit
RECTANGLE Normal 288 208 -16 32 2
RECTANGLE Normal 592 288 320 32 2
RECTANGLE Normal 880 288 608 32 2
