Version 4
SHEET 1 880 680
WIRE 432 0 432 -32
WIRE 544 0 544 -32
WIRE 176 80 176 48
WIRE 144 128 16 128
WIRE 432 128 432 80
WIRE 544 128 544 80
WIRE 352 160 288 160
WIRE 16 176 16 128
WIRE 144 192 112 192
WIRE 352 208 352 160
WIRE 176 256 176 240
WIRE 16 288 16 256
WIRE 112 304 112 192
WIRE 352 304 352 288
WIRE 352 304 112 304
WIRE 352 320 352 304
WIRE 352 448 352 400
FLAG 432 128 0
FLAG 544 128 0
FLAG 16 288 0
FLAG 352 448 0
FLAG 432 -32 Vcc
FLAG 176 256 Vcc
FLAG 176 48 Vee
FLAG 544 -32 Vee
FLAG 352 160 Vout
SYMBOL Opamps\\LT6200 176 160 M180
SYMATTR InstName U1
SYMBOL voltage 432 -16 R0
WINDOW 123 0 0 Left 0
WINDOW 39 0 0 Left 0
SYMATTR InstName V1
SYMATTR Value 2.5
SYMBOL voltage 544 -16 R0
WINDOW 123 0 0 Left 0
WINDOW 39 0 0 Left 0
SYMATTR InstName V2
SYMATTR Value -2.5
SYMBOL res 336 192 R0
SYMATTR InstName R1
SYMATTR Value 900
SYMBOL res 336 304 R0
SYMATTR InstName R2
SYMATTR Value 100
SYMBOL voltage 16 160 R0
WINDOW 123 24 124 Left 2
WINDOW 39 0 0 Left 0
SYMATTR InstName V3
SYMATTR Value ""
SYMATTR Value2 AC 1
TEXT -64 376 Left 2 !.noise V(Vout) V3 dec 100 100 40Meg
