Version 4
SHEET 1 1128 760
WIRE 80 96 -80 96
WIRE 352 96 160 96
WIRE -80 128 -80 96
WIRE 352 128 352 96
WIRE -80 240 -80 208
WIRE 352 240 352 208
WIRE 80 336 -80 336
WIRE 352 336 160 336
WIRE 352 352 352 336
WIRE -80 368 -80 336
WIRE 352 464 352 432
WIRE -80 480 -80 448
WIRE 96 576 -80 576
WIRE 368 576 176 576
WIRE -80 608 -80 576
WIRE 368 608 368 576
WIRE -80 720 -80 688
WIRE 368 720 368 688
FLAG -80 240 0
FLAG 352 240 0
FLAG -80 480 0
FLAG -80 720 0
FLAG 352 464 0
FLAG 368 720 0
SYMBOL bv 352 112 R0
SYMATTR InstName B1
SYMATTR Value P=1
SYMBOL res 64 112 R270
WINDOW 0 32 56 VTop 2
WINDOW 3 0 56 VBottom 2
SYMATTR InstName R1
SYMATTR Value 100m
SYMBOL voltage -80 112 R0
WINDOW 123 0 0 Left 0
WINDOW 39 0 0 Left 0
SYMATTR InstName V1
SYMATTR Value PULSE(11 12 0 1 1 1 3)
SYMBOL res 64 352 R270
WINDOW 0 32 56 VTop 2
WINDOW 3 0 56 VBottom 2
SYMATTR InstName R2
SYMATTR Value 100m
SYMBOL voltage -80 352 R0
WINDOW 123 0 0 Left 0
WINDOW 39 0 0 Left 0
SYMATTR InstName V2
SYMATTR Value PULSE(11 12 0 1 1 1 3)
SYMBOL res 80 592 R270
WINDOW 0 32 56 VTop 2
WINDOW 3 0 56 VBottom 2
SYMATTR InstName R3
SYMATTR Value 100m
SYMBOL voltage -80 592 R0
WINDOW 123 0 0 Left 0
WINDOW 39 0 0 Left 0
SYMATTR InstName V3
SYMATTR Value PULSE(11 12 0 1 1 1 3)
SYMBOL res 336 336 R0
SYMATTR InstName R4
SYMATTR Value 1
SYMBOL bi 368 608 R0
SYMATTR InstName B2
SYMATTR Value I=1
TEXT 464 88 Left 2 ;Arbitrary behavioural voltage source: constant power load
TEXT 464 344 Left 2 ;Constant resistance load
TEXT 472 608 Left 2 ;Constant current load
TEXT 312 -96 Left 4 ;Constant P, R, I loads
TEXT 966 -24 Left 2 !.tran 3
