Version 4
SHEET 1 2108 680
WIRE -48 -16 -48 -64
WIRE 608 16 96 16
WIRE 208 80 144 80
WIRE 496 80 432 80
WIRE -48 112 -48 64
WIRE 96 112 96 16
WIRE 96 112 -48 112
WIRE 208 144 96 144
WIRE 608 144 608 16
WIRE 608 144 432 144
WIRE -48 176 -48 112
WIRE 208 208 192 208
WIRE 528 208 432 208
WIRE -224 240 -224 208
WIRE 208 272 176 272
WIRE -48 288 -48 256
WIRE 96 288 96 144
WIRE 96 288 -48 288
WIRE -48 304 -48 288
WIRE -224 336 -224 320
WIRE 96 336 96 288
WIRE 528 336 528 208
WIRE 528 336 96 336
WIRE -48 400 -48 368
FLAG -48 400 0
FLAG -224 336 0
FLAG -224 208 power
FLAG 496 80 power
FLAG 176 272 power
FLAG -48 -64 power
FLAG 144 80 0
SYMBOL Misc\\NE555 320 176 R0
SYMATTR InstName U1
SYMBOL res -64 -32 R0
SYMATTR InstName R1
SYMATTR Value 10k
SYMBOL res -64 160 R0
SYMATTR InstName R2
SYMATTR Value 10k
SYMBOL cap -64 304 R0
SYMATTR InstName C1
SYMATTR Value 1µ
SYMBOL voltage -224 224 R0
WINDOW 123 0 0 Left 2
WINDOW 39 0 0 Left 2
SYMATTR InstName V1
SYMATTR Value 5
TEXT -240 400 Left 2 !.tran 100m
TEXT 208 -96 Left 4 ;555 Timer
TEXT 728 -16 Left 2 ;Astable mode: oscillates between high and low\n \nOscillating frequency = f = 1.44/((R1+2*R2)*C1)\nOscillating period = T = 1/f = 0.694*(R1+2*R2)*C1 = 20.82 ms\nOn time = T1 = 0.694*(R1+R2)*C1 = 13.88 ms\nOff time = T0 = 0.694*R2*C1 = 6.94 ms\nDuty cycle = T1/(T1+T0) = T1/T = (R1+R2)/(R1+2*R2) = 0.67\n \nNote:\n1. Frequency depends both on capacitor and resistor values.\n2. On time depends both on R1 and R2 (and C of course) because capacitor gets charged through Vcc.\n3. Off time depends only on R2 (and C) since the capacitor gets discharged through the discharge pin (shorted to ground).\n4. Duty cycle depends ONLY on resistors value and NOT on the capacitor.
