Version 4
SHEET 1 880 680
WIRE 224 0 208 0
WIRE 464 80 400 80
WIRE 624 80 544 80
WIRE 224 96 208 96
WIRE 304 96 304 0
WIRE 224 192 208 192
WIRE 304 192 304 96
WIRE 624 192 624 80
WIRE 304 208 304 192
WIRE 400 208 400 80
WIRE 400 208 304 208
WIRE 448 208 400 208
WIRE 624 224 624 192
WIRE 624 224 512 224
WIRE 448 240 416 240
WIRE 416 272 416 240
FLAG 416 272 0
FLAG 0 256 0
FLAG -96 256 0
FLAG -96 112 0
FLAG 0 112 0
FLAG 96 112 0
FLAG -96 176 Vcc
FLAG 480 192 Vcc
FLAG 0 176 Vee
FLAG 480 256 Vee
FLAG 208 0 Va
FLAG -96 32 Va
FLAG 208 96 Vb
FLAG 0 32 Vb
FLAG 96 32 Vc
FLAG 208 192 Vc
FLAG 624 192 Out
SYMBOL voltage -96 16 R0
WINDOW 3 24 96 Invisible 2
WINDOW 123 0 0 Left 2
WINDOW 39 0 0 Left 2
SYMATTR Value PULSE(0 1 0 1n 1n 100ms 200ms)
SYMATTR InstName V1
SYMBOL voltage 0 16 R0
WINDOW 3 24 96 Invisible 2
WINDOW 123 0 0 Left 2
WINDOW 39 0 0 Left 2
SYMATTR Value PULSE(0 1 0 1n 1n 100ms 200ms)
SYMATTR InstName V2
SYMBOL voltage 96 16 R0
WINDOW 3 24 96 Invisible 2
WINDOW 123 0 0 Left 2
WINDOW 39 0 0 Left 2
SYMATTR Value PULSE(0 1 0 1n 1n 100ms 200ms)
SYMATTR InstName V3
SYMBOL voltage -96 160 R0
WINDOW 123 0 0 Left 2
WINDOW 39 0 0 Left 2
SYMATTR InstName V4
SYMATTR Value 15
SYMBOL voltage 0 160 R0
WINDOW 123 0 0 Left 2
WINDOW 39 0 0 Left 2
SYMATTR InstName V5
SYMATTR Value -15
SYMBOL Opamps\\LT1007 480 160 R0
SYMATTR InstName U1
SYMBOL res 320 -16 R90
WINDOW 0 0 56 VBottom 2
WINDOW 3 32 56 VTop 2
SYMATTR InstName R1
SYMATTR Value 1k
SYMBOL res 320 80 R90
WINDOW 0 0 56 VBottom 2
WINDOW 3 32 56 VTop 2
SYMATTR InstName R2
SYMATTR Value 1k
SYMBOL res 320 176 R90
WINDOW 0 0 56 VBottom 2
WINDOW 3 32 56 VTop 2
SYMATTR InstName R3
SYMATTR Value 1k
SYMBOL res 560 64 R90
WINDOW 0 0 56 VBottom 2
WINDOW 3 32 56 VTop 2
SYMATTR InstName R4
SYMATTR Value 1k
TEXT -120 320 Left 2 !.tran 1s
TEXT -120 352 Left 2 ;Vout =-( Va + Vb + Vc)
TEXT 96 -120 Left 4 ;Inverting sum
