Version 4
SHEET 1 880 680
WIRE 16 -80 -48 -80
WIRE 128 -80 80 -80
WIRE -48 16 -48 -80
WIRE 16 16 -48 16
WIRE 128 16 128 -80
WIRE 128 16 96 16
WIRE 496 64 448 64
WIRE 640 64 576 64
WIRE -160 144 -224 144
WIRE -48 144 -48 16
WIRE -48 144 -80 144
WIRE 0 144 -48 144
WIRE 128 160 128 16
WIRE 128 160 64 160
WIRE 0 176 -32 176
WIRE 128 176 128 160
WIRE 192 176 128 176
WIRE 272 176 192 176
WIRE 368 176 352 176
WIRE 448 176 448 64
WIRE 448 176 432 176
WIRE 464 176 448 176
WIRE 640 192 640 64
WIRE 640 192 528 192
WIRE 464 208 448 208
WIRE -32 224 -32 176
WIRE 448 256 448 208
WIRE -224 304 -224 144
FLAG -32 224 0
FLAG -224 384 0
FLAG -496 208 0
FLAG -384 208 0
FLAG -496 128 Vcc
FLAG 32 128 Vcc
FLAG 32 192 Vee
FLAG -384 128 Vee
FLAG 496 160 Vcc
FLAG 496 224 Vee
FLAG 448 256 0
FLAG 192 176 OUT1
FLAG 640 192 OUT2
SYMBOL res 112 0 R90
WINDOW 0 0 56 VBottom 2
WINDOW 3 32 56 VTop 2
SYMATTR InstName R1
SYMATTR Value 30k
SYMBOL cap 80 -96 R90
WINDOW 0 0 32 VBottom 2
WINDOW 3 32 32 VTop 2
SYMATTR InstName C1
SYMATTR Value 100µ
SYMBOL res -64 128 R90
WINDOW 0 0 56 VBottom 2
WINDOW 3 32 56 VTop 2
SYMATTR InstName R2
SYMATTR Value 1k
SYMBOL voltage -224 288 R0
WINDOW 123 24 124 Left 2
WINDOW 39 0 0 Left 2
SYMATTR Value2 AC 1
SYMATTR InstName V1
SYMATTR Value PULSE(0 1 0 1n 1n 0.2s 0.4s)
SYMBOL voltage -496 112 R0
WINDOW 123 0 0 Left 2
WINDOW 39 0 0 Left 2
SYMATTR InstName V2
SYMATTR Value 30
SYMBOL voltage -384 112 R0
WINDOW 123 0 0 Left 2
WINDOW 39 0 0 Left 2
SYMATTR InstName V3
SYMATTR Value -30
SYMBOL Opamps\\LT1007 32 96 R0
SYMATTR InstName U2
SYMBOL Opamps\\LT1007 496 128 R0
SYMATTR InstName U4
SYMBOL res 368 160 R90
WINDOW 0 0 56 VBottom 2
WINDOW 3 32 56 VTop 2
SYMATTR InstName R3
SYMATTR Value 1k
SYMBOL cap 432 160 R90
WINDOW 0 0 32 VBottom 2
WINDOW 3 32 32 VTop 2
SYMATTR InstName C2
SYMATTR Value 1µ
SYMBOL res 592 48 R90
WINDOW 0 0 56 VBottom 2
WINDOW 3 32 56 VTop 2
SYMATTR InstName R4
SYMATTR Value 30k
TEXT -536 320 Left 2 !.tran 0 22s 20s
TEXT -536 280 Left 2 !;ac dec 100 1 100Meg
TEXT -128 264 Left 2 ;From square to triangular wave
TEXT 320 -40 Left 2 ;Inverting derivative:\nfrom triangular to square wave
TEXT -224 -168 Left 4 ;Inverting integrator and derivative
