Version 4
SHEET 1 880 680
WIRE 80 80 32 80
WIRE 192 80 160 80
WIRE 272 80 192 80
WIRE 432 80 336 80
WIRE 192 192 192 80
WIRE 256 192 192 192
WIRE 432 208 432 80
WIRE 432 208 320 208
WIRE 256 224 192 224
WIRE 64 256 -48 256
WIRE 192 256 192 224
WIRE 192 256 144 256
WIRE 192 272 192 256
WIRE -48 288 -48 256
FLAG 192 336 0
FLAG 32 80 0
FLAG 432 208 out
FLAG -48 368 0
FLAG -96 96 0
FLAG -176 96 0
FLAG -176 16 Vcc
FLAG 288 176 Vcc
FLAG -96 16 Vee
FLAG 288 240 Vee
SYMBOL cap 176 272 R0
SYMATTR InstName C1
SYMATTR Value 10µ
SYMBOL cap 336 64 R90
WINDOW 0 0 32 VBottom 2
WINDOW 3 32 32 VTop 2
SYMATTR InstName C2
SYMATTR Value 10µ
SYMBOL res 176 64 R90
WINDOW 0 0 56 VBottom 2
WINDOW 3 32 56 VTop 2
SYMATTR InstName R1
SYMATTR Value 10k
SYMBOL res 160 240 R90
WINDOW 0 0 56 VBottom 2
WINDOW 3 32 56 VTop 2
SYMATTR InstName R2
SYMATTR Value 10k
SYMBOL voltage -48 272 R0
WINDOW 3 24 152 Left 2
WINDOW 123 24 124 Left 2
WINDOW 39 0 0 Left 2
SYMATTR Value PULSE(1 -1 0 1n 1n 100m 200m)
SYMATTR Value2 AC 1
SYMATTR InstName V1
SYMBOL Opamps\\LT1007 288 144 R0
SYMATTR InstName U2
SYMBOL voltage -176 0 R0
WINDOW 123 0 0 Left 2
WINDOW 39 0 0 Left 2
SYMATTR InstName V2
SYMATTR Value 10
SYMBOL voltage -96 0 R0
WINDOW 123 0 0 Left 2
WINDOW 39 0 0 Left 2
SYMATTR InstName V3
SYMATTR Value -10
TEXT -296 216 Left 2 !;ac dec 1000 1m 1000Meg
TEXT -304 256 Left 2 !.lib opamp.sub
TEXT -304 288 Left 2 !.tran 1 startup
TEXT -72 -80 Left 4 ;Non inverting integrator
