Version 4
SHEET 1 880 680
WIRE 80 16 0 16
WIRE 208 16 144 16
WIRE 256 16 208 16
WIRE 368 16 336 16
WIRE 0 32 0 16
WIRE 208 144 208 16
WIRE 256 144 208 144
WIRE 368 160 368 16
WIRE 368 160 320 160
WIRE 80 176 0 176
WIRE 208 176 144 176
WIRE 256 176 208 176
WIRE 0 208 0 176
WIRE 208 208 208 176
FLAG 208 288 0
FLAG 0 32 0
FLAG 0 288 0
FLAG -160 48 0
FLAG -256 48 0
FLAG -256 -32 Vcc
FLAG 288 128 Vcc
FLAG 288 192 Vee
FLAG -160 -32 Vee
SYMBOL res 352 0 R90
WINDOW 0 0 56 VBottom 2
WINDOW 3 32 56 VTop 2
SYMATTR InstName R1
SYMATTR Value 10k
SYMBOL res 224 304 R180
WINDOW 0 36 76 Left 2
WINDOW 3 36 40 Left 2
SYMATTR InstName R2
SYMATTR Value 10k
SYMBOL cap 144 160 R90
WINDOW 0 0 32 VBottom 2
WINDOW 3 32 32 VTop 2
SYMATTR InstName C1
SYMATTR Value 100µ
SYMBOL cap 144 0 R90
WINDOW 0 0 32 VBottom 2
WINDOW 3 32 32 VTop 2
SYMATTR InstName C2
SYMATTR Value 100µ
SYMBOL voltage 0 192 R0
WINDOW 3 24 151 Left 2
WINDOW 123 24 124 Left 2
WINDOW 39 0 0 Left 2
SYMATTR Value PULSE(0 1 0 100m 100m 1n 200m)
SYMATTR Value2 AC 1
SYMATTR InstName V1
SYMBOL Opamps\\LT1007 288 96 R0
SYMATTR InstName U2
SYMBOL voltage -256 -48 R0
WINDOW 123 0 0 Left 2
WINDOW 39 0 0 Left 2
SYMATTR InstName V2
SYMATTR Value 10
SYMBOL voltage -160 -48 R0
WINDOW 123 0 0 Left 2
WINDOW 39 0 0 Left 2
SYMATTR InstName V3
SYMATTR Value -10
TEXT -296 144 Left 2 !;ac dec 1000 1 1000Meg
TEXT -296 112 Left 2 !.tran 500m
TEXT -168 -152 Left 4 ;Non inverting derivative
