Version 4
SHEET 1 880 816
WIRE 176 -48 160 -48
WIRE 320 -48 256 -48
WIRE 320 16 320 -48
WIRE 160 64 160 -48
WIRE 160 64 144 64
WIRE 192 64 160 64
WIRE 320 80 320 16
WIRE 320 80 256 80
WIRE 192 96 160 96
WIRE -400 192 -464 192
WIRE -16 192 -320 192
WIRE 160 192 160 96
WIRE 160 192 64 192
WIRE -208 288 -240 288
WIRE 0 288 -128 288
WIRE 160 288 160 192
WIRE 160 288 80 288
WIRE 160 352 160 288
WIRE 16 416 -48 416
WIRE 160 416 160 352
WIRE 160 416 96 416
WIRE 160 576 160 416
WIRE 160 576 96 576
WIRE 160 720 160 576
WIRE 160 720 96 720
FLAG -480 0 0
FLAG -384 0 0
FLAG -480 -80 Vcc
FLAG -384 -80 Vee
FLAG 224 112 Vee
FLAG 224 48 Vcc
FLAG 64 64 0
FLAG -464 192 0
FLAG -240 288 0
FLAG -128 416 0
FLAG -64 576 0
FLAG -64 720 0
FLAG 320 16 OUT
FLAG 160 352 A
SYMBOL Opamps\\LT1007 224 16 R0
SYMATTR InstName U1
SYMBOL voltage -480 -96 R0
WINDOW 123 0 0 Left 2
WINDOW 39 0 0 Left 2
SYMATTR InstName V1
SYMATTR Value 50
SYMBOL voltage -384 -96 R0
WINDOW 123 0 0 Left 2
WINDOW 39 0 0 Left 2
SYMATTR InstName V2
SYMATTR Value -50
SYMBOL res 160 48 R90
WINDOW 0 0 56 VBottom 2
WINDOW 3 32 56 VTop 2
SYMATTR InstName R1
SYMATTR Value 10k
SYMBOL res 272 -64 R90
WINDOW 0 0 56 VBottom 2
WINDOW 3 32 56 VTop 2
SYMATTR InstName R2
SYMATTR Value 40k
SYMBOL res 80 176 R90
WINDOW 0 0 56 VBottom 2
WINDOW 3 32 56 VTop 2
SYMATTR InstName R3
SYMATTR Value 10k
SYMBOL res 112 400 R90
WINDOW 0 0 56 VBottom 2
WINDOW 3 32 56 VTop 2
SYMATTR InstName R4
SYMATTR Value 10k
SYMBOL res 96 272 R90
WINDOW 0 0 56 VBottom 2
WINDOW 3 32 56 VTop 2
SYMATTR InstName R5
SYMATTR Value 10k
SYMBOL voltage -304 192 R90
WINDOW 0 -32 56 VBottom 2
WINDOW 3 32 56 VTop 2
WINDOW 123 0 0 Left 2
WINDOW 39 0 0 Left 2
SYMATTR InstName V3
SYMATTR Value SINE(0 1 1)
SYMBOL voltage -112 288 R90
WINDOW 0 -32 56 VBottom 2
WINDOW 3 32 56 VTop 2
WINDOW 123 0 0 Left 2
WINDOW 39 0 0 Left 2
SYMATTR InstName V4
SYMATTR Value SINE(0 1 1)
SYMBOL voltage -32 416 R90
WINDOW 0 -32 56 VBottom 2
WINDOW 3 32 56 VTop 2
WINDOW 123 0 0 Left 2
WINDOW 39 0 0 Left 2
SYMATTR InstName V5
SYMATTR Value SINE(0 10 1)
SYMBOL res 112 560 R90
WINDOW 0 0 56 VBottom 2
WINDOW 3 32 56 VTop 2
SYMATTR InstName R6
SYMATTR Value 10k
SYMBOL voltage 32 576 R90
WINDOW 0 -32 56 VBottom 2
WINDOW 3 32 56 VTop 2
WINDOW 123 0 0 Left 2
WINDOW 39 0 0 Left 2
SYMATTR InstName V6
SYMATTR Value SINE(0 2 1)
SYMBOL voltage 32 720 R90
WINDOW 0 -32 56 VBottom 2
WINDOW 3 32 56 VTop 2
WINDOW 123 0 0 Left 2
WINDOW 39 0 0 Left 2
SYMATTR InstName V7
SYMATTR Value SINE(0 1 1)
SYMBOL res 112 704 R90
WINDOW 0 0 56 VBottom 2
WINDOW 3 32 56 VTop 2
SYMATTR InstName R7
SYMATTR Value 10k
TEXT -288 -112 Left 2 !.tran 1s
TEXT -1048 560 Left 2 ;Voltage on bus A is the average of the voltages in the input (assuming that the resistors\napplied to each signal are the same). The amplifier is an opamp in non inverting \nconfiguration so Vout is given by V+ * (1+R2/R1). If I want the sum of the signals\nI just need to set 1 + R2/R1 equal to the number of signals in the sum. Therefore,\n R2/R1 needs to be equal to the number of signals - 1.\n \nIn this case: R2/R1 = 5 - 1 = 4
TEXT -288 -288 Left 4 ;Non inverting sum
