Version 4
SHEET 1 936 680
WIRE 160 32 -64 32
WIRE 464 32 320 32
WIRE -64 64 -64 32
WIRE 160 64 160 32
WIRE 320 64 320 32
WIRE 464 64 464 32
WIRE -64 208 -64 144
WIRE 160 208 160 144
WIRE 320 208 320 144
WIRE 464 208 464 144
FLAG -64 208 0
FLAG 160 208 0
FLAG 320 208 0
FLAG 464 208 0
SYMBOL ind2 144 48 R0
SYMATTR InstName Lp
SYMATTR Value 100µ
SYMATTR Type ind
SYMBOL ind2 336 160 R180
WINDOW 0 36 80 Left 2
WINDOW 3 36 40 Left 2
SYMATTR InstName Ls
SYMATTR Value 4µ
SYMATTR Type ind
SYMBOL voltage -64 48 R0
WINDOW 123 0 0 Left 2
WINDOW 39 24 124 Left 2
SYMATTR SpiceLine Rser=0.0001
SYMATTR InstName Vs
SYMATTR Value SINE(0 100 60)
SYMBOL res 448 48 R0
SYMATTR InstName RL
SYMATTR Value 1kOhms
TEXT 192 16 Left 2 !K Lp Ls 1
TEXT 632 80 Left 2 !.tran 0 0.1 0.001
TEXT 632 40 Left 2 ;Step down transformer 5:1
TEXT -32 -64 Left 4 ;Ideal step down 5:1 transformer
