Version 4
SHEET 1 2132 1044
WIRE 640 -160 592 -160
WIRE 928 -160 720 -160
WIRE 592 -48 592 -160
WIRE 768 -48 592 -48
WIRE 928 -32 928 -160
WIRE 928 -32 832 -32
WIRE 768 -16 736 -16
WIRE 736 32 736 -16
WIRE 592 64 592 -48
WIRE 384 128 304 128
WIRE 480 128 448 128
WIRE 544 128 480 128
WIRE 480 176 480 128
WIRE -352 464 -400 464
WIRE -272 464 -352 464
WIRE -400 528 -400 464
WIRE -272 528 -272 464
WIRE -400 624 -400 608
WIRE -288 624 -288 592
WIRE -288 624 -400 624
WIRE -256 624 -256 592
WIRE -80 624 -256 624
WIRE 192 624 -80 624
WIRE 448 624 192 624
WIRE -288 640 -288 624
WIRE -80 656 -80 624
WIRE 192 656 192 624
WIRE 448 656 448 624
WIRE -80 752 -80 736
WIRE 192 752 192 736
WIRE 448 752 448 736
WIRE -80 848 -80 832
WIRE 192 848 192 832
WIRE 448 848 448 832
FLAG -208 80 0
FLAG -320 80 0
FLAG -208 0 Vsignal
FLAG -320 0 Vbias
FLAG 592 160 0
FLAG 736 112 0
FLAG 480 256 Vbias
FLAG 928 -160 OUT
FLAG -80 848 0
FLAG -288 720 0
FLAG 192 848 0
FLAG 448 848 0
FLAG -624 48 0
FLAG -528 48 0
FLAG -624 -32 Vcc
FLAG -528 -32 Vee
FLAG -304 560 Vcc
FLAG -240 560 Vee
FLAG -352 464 Audio
FLAG 304 128 Vsignal
SYMBOL voltage -208 -16 R0
WINDOW 123 0 0 Left 2
WINDOW 39 0 0 Left 2
SYMATTR InstName V1
SYMATTR Value SINE(0 1 10k 0.5m)
SYMBOL voltage -320 -16 R0
WINDOW 123 0 0 Left 2
WINDOW 39 0 0 Left 2
SYMATTR InstName V2
SYMATTR Value -2
SYMBOL njf 544 64 R0
SYMATTR InstName J1
SYMATTR Value 2N3819
SYMBOL Opamps\\opamp 800 -96 R0
SYMATTR InstName U1
SYMBOL cap 448 112 R90
WINDOW 0 0 32 VBottom 2
WINDOW 3 32 32 VTop 2
SYMATTR InstName C1
SYMATTR Value 1µ
SYMBOL res 464 160 R0
SYMATTR InstName R1
SYMATTR Value 10k
SYMBOL res 736 -176 R90
WINDOW 0 0 56 VBottom 2
WINDOW 3 32 56 VTop 2
SYMATTR InstName R2
SYMATTR Value 1k
SYMBOL voltage 736 16 R0
WINDOW 123 0 0 Left 2
WINDOW 39 0 0 Left 2
SYMATTR InstName V3
SYMATTR Value SINE(0 100m 200k)
SYMBOL voltage -80 736 R0
WINDOW 123 0 0 Left 2
WINDOW 39 0 0 Left 2
SYMATTR InstName V4
SYMATTR Value SINE(0 500m 2k)
SYMBOL Opamps\\LT1007 -336 560 R270
SYMATTR InstName U2
SYMBOL res -304 624 R0
SYMATTR InstName R3
SYMATTR Value 10k
SYMBOL res -416 512 R0
SYMATTR InstName R4
SYMATTR Value 20k
SYMBOL res -96 640 R0
SYMATTR InstName R5
SYMATTR Value 10k
SYMBOL voltage 192 736 R0
WINDOW 123 0 0 Left 2
WINDOW 39 0 0 Left 2
SYMATTR InstName V5
SYMATTR Value SINE(0 200m 1k)
SYMBOL res 176 640 R0
SYMATTR InstName R6
SYMATTR Value 10k
SYMBOL voltage 448 736 R0
WINDOW 123 0 0 Left 2
WINDOW 39 0 0 Left 2
SYMATTR InstName V6
SYMATTR Value SINE(0 200m 5k)
SYMBOL res 432 640 R0
SYMATTR InstName R7
SYMATTR Value 10k
SYMBOL voltage -624 -48 R0
WINDOW 123 0 0 Left 2
WINDOW 39 0 0 Left 2
SYMATTR InstName V7
SYMATTR Value 15
SYMBOL voltage -528 -48 R0
WINDOW 123 0 0 Left 2
WINDOW 39 0 0 Left 2
SYMATTR InstName V8
SYMATTR Value -15
TEXT 64 -64 Left 2 !.tran 1m
TEXT 64 -16 Left 2 !.lib opamp.sub
TEXT 792 72 Left 2 ;Carrier wave 200kHz
TEXT -416 -152 Left 2 ;Opamp gain depends on JFET resistance which is modulated by the modulating signal
TEXT 64 -104 Left 2 ;Vsignal is the modulating 10kHz signal
TEXT -408 184 Left 2 ;Modulated signal spectrum (OUT) is Fc-Fm, Fc+Fm.\nFm max frequency modulating signal\nFc carrier wave frequency\nPeaks can be seen in the FT\nUse gaussian window function
TEXT -16 472 Left 2 ;Audio signal. Example 1k + 2k + 5k Hz. FFT of signal \ncontains these frequencies. Output should contain this too.
TEXT -456 360 Left 2 ;Audio signal to be tested in the place of Vsignal. \nUsing a 200kHz carrier, the spectrum is at 200-5 and 200+5 kHz
TEXT 16 -288 Left 4 ;AM modulator
RECTANGLE Normal 704 896 -464 416 2
