Version 4
SHEET 1 1076 692
WIRE -64 -64 -192 -64
WIRE 128 -64 -64 -64
WIRE 320 -64 128 -64
WIRE -192 -16 -192 -64
WIRE -64 -16 -64 -64
WIRE 128 -16 128 -64
WIRE 320 -16 320 -64
WIRE -192 96 -192 64
WIRE 128 96 128 64
WIRE 320 96 320 64
WIRE -64 112 -64 64
WIRE -64 112 -160 112
WIRE -48 112 -64 112
WIRE 416 112 32 112
WIRE 128 144 128 96
WIRE 320 144 320 96
WIRE -160 176 -160 112
WIRE -64 192 -64 112
WIRE -48 192 -64 192
WIRE 64 192 32 192
WIRE 416 192 416 112
WIRE 416 192 384 192
WIRE 448 192 416 192
WIRE 576 192 512 192
WIRE 640 192 576 192
WIRE 672 192 640 192
WIRE 576 208 576 192
WIRE 672 208 672 192
WIRE -160 272 -160 240
WIRE 128 288 128 240
WIRE 192 288 128 288
WIRE 320 288 320 240
WIRE 320 288 192 288
WIRE -64 320 -64 192
WIRE 576 336 576 288
WIRE 672 336 672 288
WIRE 192 416 192 288
WIRE -64 448 -64 400
WIRE 384 464 256 464
WIRE 384 480 384 464
WIRE 192 544 192 512
WIRE 384 592 384 560
WIRE 192 672 192 624
FLAG -192 96 0
FLAG -64 448 0
FLAG -160 272 0
FLAG 576 336 0
FLAG 672 336 0
FLAG 192 672 0
FLAG 384 592 0
FLAG 320 96 A
FLAG 128 96 B
FLAG 640 192 Vin
SYMBOL npn 64 144 R0
SYMATTR InstName Q1
SYMATTR Value 2N3904
SYMBOL npn 384 144 M0
SYMATTR InstName Q2
SYMATTR Value 2N3904
SYMBOL res 112 -32 R0
SYMATTR InstName R1
SYMATTR Value 180
SYMBOL res 304 -32 R0
SYMATTR InstName R2
SYMATTR Value 180
SYMBOL voltage -192 -32 R0
WINDOW 123 0 0 Left 2
WINDOW 39 0 0 Left 2
SYMATTR InstName V1
SYMATTR Value 12
SYMBOL res -80 -32 R0
SYMATTR InstName R3
SYMATTR Value 20k
SYMBOL res -80 304 R0
SYMATTR InstName R4
SYMATTR Value 10k
SYMBOL res 48 176 R90
WINDOW 0 0 56 VBottom 2
WINDOW 3 32 56 VTop 2
SYMATTR InstName R5
SYMATTR Value 9.9k
SYMBOL res 48 96 R90
WINDOW 0 0 56 VBottom 2
WINDOW 3 32 56 VTop 2
SYMATTR InstName R6
SYMATTR Value 9.9k
SYMBOL cap -176 176 R0
SYMATTR InstName C1
SYMATTR Value .1µ
SYMBOL cap 512 176 R90
WINDOW 0 0 32 VBottom 2
WINDOW 3 32 32 VTop 2
SYMATTR InstName C2
SYMATTR Value .1µ
SYMBOL res 560 192 R0
SYMATTR InstName R7
SYMATTR Value 50
SYMBOL voltage 672 192 R0
WINDOW 123 0 0 Left 2
WINDOW 39 0 0 Left 2
SYMATTR InstName V2
SYMATTR Value SINE(0 10m 100k)
SYMBOL npn 256 416 M0
SYMATTR InstName Q3
SYMATTR Value 2N3904
SYMBOL res 176 528 R0
SYMATTR InstName R8
SYMATTR Value 100
SYMBOL voltage 384 464 R0
WINDOW 123 0 0 Left 2
WINDOW 39 0 0 Left 2
SYMATTR InstName V3
SYMATTR Value 3
TEXT 744 24 Left 2 !.tran 0 10m 9.9m
TEXT 744 -64 Left 2 ;Vout = Vab\nProportional to current Ic
TEXT 216 360 Left 2 ;Ic
TEXT 128 -200 Left 4 ;Differential pair
