Version 4
SHEET 1 880 680
WIRE -160 96 -208 96
WIRE 160 96 -80 96
WIRE 480 96 256 96
WIRE -208 128 -208 96
WIRE 160 128 96 128
WIRE 384 128 256 128
WIRE 480 128 480 96
WIRE -208 224 -208 208
WIRE 96 224 96 128
WIRE 96 224 -208 224
WIRE -208 256 -208 224
WIRE 384 256 384 128
WIRE 480 256 480 208
WIRE 480 256 384 256
WIRE 480 272 480 256
FLAG -208 256 0
FLAG 480 272 0
SYMBOL tline 208 112 R0
SYMATTR InstName T1
SYMBOL voltage -208 112 R0
WINDOW 123 24 124 Left 2
WINDOW 39 0 0 Left 2
SYMATTR Value2 AC 1
SYMATTR InstName V1
SYMATTR Value PULSE(0 1 1p 1p 1p 5n)
SYMBOL res -64 80 R90
WINDOW 0 0 56 VBottom 2
WINDOW 3 32 56 VTop 2
SYMATTR InstName RS
SYMATTR Value 1k
SYMBOL res 464 112 R0
SYMATTR InstName RL
SYMATTR Value 1k
TEXT -240 296 Left 2 !.tran 250n
TEXT -240 336 Left 2 !;.ac dec 1000 100Meg 1G
TEXT 168 48 Left 2 ;Lossless TL
TEXT -232 -136 Left 2 ;Try \n1. matched line Rs = RL = 50 ohm both in time and frequency domain --> No reflection occurs\n2. Non matched line Rs = RL = 75  Ohm --> Reflection occurs\n3. Non matched line Rs = RL = 1k Ohm --> Reflection occurs
TEXT -16 -216 Left 4 ;Lossless transmission line DC pulse
